<?xml version="1.0" encoding="UTF-8"?>
<net version="1.16" junctionCornerDetail="5" limitTurnSpeed="5.50" xmlns:xsi="http://www.w3.org/2001/XMLSchema-instance" xsi:noNamespaceSchemaLocation="http://sumo.dlr.de/xsd/net_file.xsd">
    <location netOffset="0.00,0.00" convBoundary="-1000.00,-1000.00,1000.00,1000.00" origBoundary="-1000.00,-1000.00,1000.00,1000.00" projParameter="!"/>

    <!-- 10 Traffic Light Junctions -->
    <junction id="J0" type="traffic_light" x="0.00" y="0.00" incLanes="E0_1 W0_1 N0_1 S0_1" intLanes=":J0_0_0 :J0_1_0 :J0_2_0 :J0_3_0" shape="-4.80,4.80 4.80,4.80 4.80,-4.80 -4.80,-4.80"/>
    <junction id="J1" type="traffic_light" x="400.00" y="0.00" incLanes="E1_1 W1_1 N1_1 S1_1" intLanes=":J1_0_0 :J1_1_0 :J1_2_0 :J1_3_0" shape="395.20,4.80 404.80,4.80 404.80,-4.80 395.20,-4.80"/>
    <junction id="J2" type="traffic_light" x="-400.00" y="0.00" incLanes="E2_1 W2_1 N2_1 S2_1" intLanes=":J2_0_0 :J2_1_0 :J2_2_0 :J2_3_0" shape="-404.80,4.80 -395.20,4.80 -395.20,-4.80 -404.80,-4.80"/>
    <junction id="J3" type="traffic_light" x="0.00" y="400.00" incLanes="E3_1 W3_1 N3_1 S3_1" intLanes=":J3_0_0 :J3_1_0 :J3_2_0 :J3_3_0" shape="-4.80,404.80 4.80,404.80 4.80,395.20 -4.80,395.20"/>
    <junction id="J4" type="traffic_light" x="0.00" y="-400.00" incLanes="E4_1 W4_1 N4_1 S4_1" intLanes=":J4_0_0 :J4_1_0 :J4_2_0 :J4_3_0" shape="-4.80,-395.20 4.80,-395.20 4.80,-404.80 -4.80,-404.80"/>
    <junction id="J5" type="traffic_light" x="400.00" y="400.00" incLanes="E5_1 W5_1 N5_1 S5_1" intLanes=":J5_0_0 :J5_1_0 :J5_2_0 :J5_3_0" shape="395.20,404.80 404.80,404.80 404.80,395.20 395.20,395.20"/>
    <junction id="J6" type="traffic_light" x="-400.00" y="400.00" incLanes="E6_1 W6_1 N6_1 S6_1" intLanes=":J6_0_0 :J6_1_0 :J6_2_0 :J6_3_0" shape="-404.80,404.80 -395.20,404.80 -395.20,395.20 -404.80,395.20"/>
    <junction id="J7" type="traffic_light" x="400.00" y="-400.00" incLanes="E7_1 W7_1 N7_1 S7_1" intLanes=":J7_0_0 :J7_1_0 :J7_2_0 :J7_3_0" shape="395.20,-395.20 404.80,-395.20 404.80,-404.80 395.20,-404.80"/>
    <junction id="J8" type="traffic_light" x="-400.00" y="-400.00" incLanes="E8_1 W8_1 N8_1 S8_1" intLanes=":J8_0_0 :J8_1_0 :J8_2_0 :J8_3_0" shape="-404.80,-395.20 -395.20,-395.20 -395.20,-404.80 -404.80,-404.80"/>
    <junction id="J9" type="traffic_light" x="800.00" y="0.00" incLanes="E9_1 W9_1 N9_1 S9_1" intLanes=":J9_0_0 :J9_1_0 :J9_2_0 :J9_3_0" shape="795.20,4.80 804.80,4.80 804.80,-4.80 795.20,-4.80"/>

    <!-- Traffic Light Programs -->
    <tlLogic id="J0" type="static" programID="0" offset="0">
        <phase duration="31" state="GGGGrrrrGGGGrrrr"/>
        <phase duration="4" state="yyyyrrrryyyyrrrr"/>
        <phase duration="31" state="rrrrGGGGrrrrGGGG"/>
        <phase duration="4" state="rrrryyyyrrrryyy"/>
    </tlLogic>
</net>