<?xml version="1.0" encoding="UTF-8"?>
<routes xmlns:xsi="http://www.w3.org/2001/XMLSchema-instance" xsi:noNamespaceSchemaLocation="http://sumo.dlr.de/xsd/routes_file.xsd">
    <!-- Vehicle Types -->
    <vType id="car" accel="2.6" decel="4.5" sigma="0.5" length="5.0" maxSpeed="50.0" color="1,1,0"/>
    <vType id="truck" accel="1.8" decel="4.0" sigma="0.5" length="12.0" maxSpeed="40.0" color="0,0,1"/>
    <vType id="ambulance" accel="3.0" decel="5.0" sigma="0.2" length="6.0" maxSpeed="60.0" color="1,0,0"/>

    <!-- Routes -->
    <route id="route0" edges="E0 E1 E2"/>
    <route id="route1" edges="N0 N1 N2"/>
    <route id="emergency_route" edges="E0 E1 E2 E3"/>

    <!-- 100 Vehicles -->